
Second!!!


New Line...

Secont new line.
ű

Add new Line
