
Second!!!


New Line...

Secont new line.
ű

Add new Line

master new line
