
Second!!!


New Line...

Secont new line.
